<?xml version="1.0" encoding="UTF-8"?>
<routes xmlns:xsi="http://www.w3.org/2001/XMLSchema-instance" xsi:noNamespaceSchemaLocation="http://sumo.dlr.de/xsd/routes_file.xsd">
    <vType id="default_car" accel="2.6" decel="4.5" sigma="0" minGap="5.0" maxSpeed="60" carFollowModel="IDM" />
    <vehicle id="0" depart="0.00" departLane="random" departPos="44.51" arrivalPos="54.46" type="default_car">
        <route edges="-E44 205948494#1 205948494#2 311763068#3 311763068#4 311757634#6 311757634#7 1004638331 659859594#0 659859594#1 829929488 829929487 E24 E25 E26 E27 311769161#3 862890562#1 862890562#2 528505343#1 528505343#3 -311771504#2 -311771504#1 -311771504#0 -298959858#3 717036848#0 717036850#0" />
    </vehicle>
    <vehicle id="1" depart="1.20" departLane="random" departPos="172.30" arrivalPos="432.89" type="default_car">
        <route edges="205900400#4 -E59 -E59.1482 311766744#7 311766744#7.116 311766744#9 311766744#10 -958442984#0 958442984#0 958442984#1 958442984#2 958442984#3 -958442984#3" />
    </vehicle>
    <vehicle id="2" depart="2.40" departLane="random" departPos="35.50" arrivalPos="38.78" type="default_car">
        <route edges="528505355#2 206099931#2 206099931#3 206099931#4 206099931#5 206099931#6 306688819#0 306688819#1 306688817#0 306688817#1 306688817#2 296300595#3 296300595#4 296300595#5 1004638333 846292585#0 846292585#1 846292585#3 846292585#5 846292585#6 846292585#7 846292585#8 846292585#9 846292585#10 296300590#4 205948479#2 205948479#3" />
    </vehicle>
    <vehicle id="4" depart="4.80" departLane="random" departPos="9.89" arrivalPos="309.29" type="default_car">
        <route edges="453851512#10 453851512#11 453851512#12 453851505#0 453851505#1 E77 E78 E79 E76 E37 311859936#0 311859936#1 E60 E102 E103 205923117#2 205923117#3 205923117#5 205923117#6 205923117#7 205923117#8 351463090#5 351463090#6 351463090#7 862460761 E99 E100 152357738#1 152357726#3 152357726#4" />
    </vehicle>
    <vehicle id="5" depart="6.00" departLane="random" departPos="16.47" arrivalPos="137.01" type="default_car">
        <route edges="534023455 862890564 E9 311766744#2 659938259 311757632#2 -205948494#2 -205948494#1 E44 560453337#3 560453337#4 560453337#5 205900421#0 205900421#1 325245193#0 325245193#1" />
    </vehicle>
    <vehicle id="6" depart="7.20" departLane="random" departPos="58.57" arrivalPos="208.63" type="default_car">
        <route edges="-E54 -E53 205923141#7.184 205923141#8 -205948497#1 -205948497#1.251 -205948497#0 205944061#0 205944061#0.433 205944061#1 311757632#1 311757632#2 311757632#2.215 311757632#3 311757632#4 311757632#5 311763067 205948479#0 205948479#1 205948479#2 205948479#3 205948479#4 311763071#0 311763071#1 311763071#2 311763071#3 311763071#4 -E17 -846675007" />
    </vehicle>
    <vehicle id="7" depart="8.40" departLane="random" departPos="53.58" arrivalPos="531.68" type="default_car">
        <route edges="311772601#1 -206099965#2 206100017 -206100004#1 E62 205948497#1.253 311757631#0 311757631#1 311757631#2 306658754#1 306658754#2 306658754#3 205923117#11 205923117#12 312158952#1 312159935#3 312159935#5" />
    </vehicle>
    <vehicle id="9" depart="10.80" departLane="random" departPos="29.45" arrivalPos="328.80" type="default_car">
        <route edges="296300595#4 296300595#5 1004638330 311766744#0 311766744#2 311766744#3 311766744#5 311766744#6 311766744#6.398 E59 E59.92 -205900400#4 -205900400#3 -205900400#1 205900400#1" />
    </vehicle>
    <vehicle id="10" depart="12.00" departLane="random" departPos="80.00" arrivalPos="369.05" type="default_car">
        <route edges="311757634#2.359 311757634#3 311757634#3.83 311757634#4 311757634#6 311757634#7 1004638331 659859594#0 659859594#1 829929488 829929487 E24 E25 E26 E27 311769161#3 205864916#1 205864916#2 205864916#3 205864916#4 205864916#5 311756861#0 311756861#1 206099968#0 206099968#1" />
    </vehicle>
    <vehicle id="11" depart="13.20" departLane="random" departPos="34.04" arrivalPos="48.40" type="default_car">
        <route edges="458782490#2 296300595#1 296300595#2 296300595#3 296300595#4 296300595#5 1004638333 846292585#0 846292585#1 846292585#3 846292585#5 846292585#6 846292585#7 846292585#8 846292585#9 846292585#10 311763071#0 311763071#1 311763071#2 311763071#3 311763071#4 -E17 -E22 -718031874 E45 205900421#3 -751858104#6 -751858104#5 -751858104#4 -751858104#3" />
    </vehicle>
    <vehicle id="12" depart="14.40" departLane="random" departPos="5.86" arrivalPos="72.31" type="default_car">
        <route edges="296300603#1 296300586#1 296300586#2 296300586#3 205864917#6 205864917#7 205864917#8 205864917#9 205864917#10 205864917#11 205864917#12 410081184 528505343#1 528505335#1 528505333 528505332 528505336#0 528505336#1 528505337#0 528505337#1 119076517#0 -311772605#3 250932177#1 -206100015#5 311852615#0 311852615#1 311852615#2 -E34 -683496007#2 -683496007#1 E50 -311859953#0 205923117#7 -205900465 205900416" />
    </vehicle>
    <vehicle id="13" depart="15.60" departLane="random" departPos="0.30" arrivalPos="2.11" type="default_car">
        <route edges="751858104#3 751858104#4 751858104#5 751858104#6 167384055#1 -E45 718031874 E22 311763073#3 311763073#4 E19 E20 205864917#0 205864917#1 205864917#2 205864917#4 205864917#6 205864917#7 -458782491#8 -458782491#7 -458782491#6 -458782491#5 -458782491#4 -458782491#3 -458782491#2 459233513#0 -459233519#1 459233512#1 459233515#0 459233515#1" />
    </vehicle>
    <vehicle id="14" depart="16.80" departLane="random" departPos="481.96" arrivalPos="59.90" type="default_car">
        <route edges="205900421#3 167384055#1 -E45 718031874 E22 E17 311763072#0 311763072#1 311763072#2 311763072#3 311763072#4 296300598#1 296300598#2 296300598#3 296300598#4 296300598#6 296300598#7 296300598#8 296300586#1 296300586#2 296300586#3 205864917#6 205864917#7 205864917#8 205864917#9 205864917#10 205864917#11 205864917#12 410081184 528505343#1 528505335#1 528505333 528505332 528505336#0 311852609#1" />
    </vehicle>
    <vehicle id="15" depart="18.00" departLane="random" departPos="103.12" arrivalPos="280.58" type="default_car">
        <route edges="862890564 E9 311766744#2 659938259 311757632#2 -205948494#2 -205948494#1 E44 560453337#3 560453337#4 560453337#5 205900421#0 205900421#1 205900421#2 205900421#3 167384055#1" />
    </vehicle>
    <vehicle id="16" depart="19.20" departLane="random" departPos="26.45" arrivalPos="150.94" type="default_car">
        <route edges="311859950#5 311859950#6 311859950#7 311859950#8 311859950#9 351463090#5 351463090#6 351463090#7 351463090#8 -311757631#4 -311757631#2 -311757631#1 -311757631#0 -205948497#1 -205948497#1.251 -205948497#0 205944061#0 205944061#0.433 205944061#1 311766744#5 311766744#6 311766744#6.398 311757634#3 311757634#3.83 -E86 -E85 -846679130#3 -846679130#2" />
    </vehicle>
    <vehicle id="17" depart="20.40" departLane="random" departPos="72.41" arrivalPos="224.70" type="default_car">
        <route edges="-536837258#3 -536837258#2 -536837258#1 167384055#2 167384055#3 167384055#4 167384055#5 -E44 205948494#1 205948494#2 311763068#3 311763068#4 205948471#0 205948471#1 205948471#1.1114 205948497#0 205948497#1 205948497#1.253 311757631#0 311757631#1 311757631#2 306658754#1 306658754#2 306658755#0 306658755#1 -E67 -E66 -E65 -E64 996021111#0 E88 E89 E90 152357738#1 152357726#3" />
    </vehicle>
    <vehicle id="18" depart="21.60" departLane="random" departPos="2.90" arrivalPos="26.22" type="default_car">
        <route edges="E21 205864917#0 205864917#1 205864917#2 205864917#4 205864917#6 205864917#7 205864917#8 205864917#9 205864917#10 205864917#11 205864917#12 410081184 528505343#1 528505343#3 528505343#4 528505355#3 528505346#0 528505346#1 528505346#2 528505346#3 528505346#4 528505346#5 528505346#6 528505346#7 306658754#0 306658754#1 306658754#2 306658755#0 351463090#7 862460761 E99 E100 152357738#1 152357726#3" />
    </vehicle>
    <vehicle id="19" depart="22.80" departLane="random" departPos="433.61" arrivalPos="86.29" type="default_car">
        <route edges="862890564.168 862890562#0 205864916#1 205864916#2 205864916#3 205864916#4 205864916#5 311756861#0 311756861#1 206099968#0 206099968#1 528505346#1 528505346#2 528505346#3 528505346#4 528505346#5 528505346#6 528505346#7 306658754#0 306658754#1 306658754#2 306658755#0 351463090#7 862460761 E99 E100 152357738#1 152357726#3 152357726#4" />
    </vehicle>
    <vehicle id="21" depart="25.20" departLane="random" departPos="42.29" arrivalPos="117.31" type="default_car">
        <route edges="306688817#5 306688817#6 458782491#8 205864917#8 205864917#9 205864917#10 205864917#11 205864917#12 410081184 528505343#1 528505343#3 528505343#4 528505355#3 528505346#0 528505346#1 528505346#2 528505346#3 528505346#4 528505346#5 528505346#6 528505346#7 306658754#0 306658754#1 306658754#2 306658754#3 205923117#11 311859950#9" />
    </vehicle>
    <vehicle id="22" depart="26.40" departLane="random" departPos="25.60" arrivalPos="2.85" type="default_car">
        <route edges="-761189897#2 -761189897#1 761189897#1 761189897#2 -453851508#4 -453851508#3 -453851508#2 -453851508#1 -453851508#0 453851512#3 453851512#4 -E47 -453823938#1 -453823938#0 167384055#5 -E44 205948494#1 205948494#2 311763068#3 311763068#4 311757634#6 311757634#7 1004638331 205948468 311755665#0 311755665#1 311755665#2 306688817#2 306688817#3 306688817#4 306688817#5 -459233519#7 -459233519#6 -459233519#5 -459233519#4 -459233519#3 -459233519#2 -459233519#1 -459233519#0" />
    </vehicle>
    <vehicle id="23" depart="27.60" departLane="random" departPos="33.35" arrivalPos="106.90" type="default_car">
        <route edges="311763071#0 459453814 459453812#1 459453812#2 296300590#2 296300590#4 296300590#5 296300590#6 311763066 311763068#0 311763068#1 311763068#2 311763068#3 311763068#4 205948471#0 205948471#1 205948471#1.1114 205948497#0 205948497#1 205948497#1.253 311757631#0 311757631#1 311757631#2 306658754#1 306658754#2 306658755#0 306658755#1 -E67 -E66 -E65 -E64 996021111#0 E88 E89 E90 152357738#1 152357726#3" />
    </vehicle>
    <vehicle id="24" depart="28.80" departLane="random" departPos="112.96" arrivalPos="9.66" type="default_car">
        <route edges="311859950#20 -206099962#3 206100005 206100028 311853268#3 119080906#1 119080906#2 119080906#3 311852880#4 311852880#5 311852880#6 205923141#7 205923141#7.184 205923141#8 311757631#0 311757631#1 311757631#2 311757631#4 351463090#9 351463090#10 528505349#0 528505349#1 528505349#2 528505349#3 528505349#4 528505349#5 528505353#0 528505353#1 528505353#2 718031542#2 718031542#3 718031542#4 848340690 311694120#2" />
    </vehicle>
    <vehicle id="25" depart="30.00" departLane="random" departPos="38.09" arrivalPos="22.21" type="default_car">
        <route edges="560453337#5 205900421#0 205900421#1 325245193#0 167384055#3 167384055#4 167384055#5 167384055#6 311757634#2 311757634#2.359 311757634#3 311757634#3.83 E16 205948471#1 205948471#1.1114 205948497#0 205948497#1 205948497#1.253 311757631#0" />
    </vehicle>
    <vehicle id="28" depart="33.60" departLane="random" departPos="147.32" arrivalPos="36.15" type="default_car">
        <route edges="-E47 -453823938#1 -453823938#0 167384055#5 -E44 205948494#1 205948494#2 311763068#3 311763068#4 311757634#6 311757634#7 1004638331 205948468 311755665#0 311755665#1 205864917#11 205864917#12 410081184 311769161#1 311769161#2" />
    </vehicle>
    <vehicle id="29" depart="34.80" departLane="random" departPos="136.22" arrivalPos="357.60" type="default_car">
        <route edges="205923117#6 311859950#14 311859950#15 311859950#17 311859950#18 311859950#19 311859950#20 311859950#21 311859950#22 311859950#23 311853269#1 -311859936#2 -311859936#1 -311859936#0 -E37 560453337#0.663 560453337#2 560453337#3 560453337#4 453823938#0 -845718046#2 -845722556" />
    </vehicle>
    <vehicle id="30" depart="36.00" departLane="random" departPos="83.57" arrivalPos="47.55" type="default_car">
        <route edges="298959855#0 -298959855#0 306688819#0 306688819#1 306688817#0 306688817#1 306688817#2 296300595#3 296300595#4 296300595#5 1004638333 846292585#0 846292585#1 846292585#3 846292585#5 846292585#6 846292585#7 846292585#8 846292585#9 846292585#10 311763071#0 311763071#1 311763071#2 311763071#3 846675007 -E22 -718031874 E45 205900421#3 -751858104#6 -751858104#5 -751858104#4 751858104#4" />
    </vehicle>
    <vehicle id="31" depart="37.20" departLane="random" departPos="87.68" arrivalPos="16.86" type="default_car">
        <route edges="205923117#3 205923141#4 205923141#5 205923141#6 205923141#7 205923141#7.184 205923141#8 -205948497#1 -205948497#1.251 -205948497#0 205944061#0 205944061#0.433 659938258 311757634#7 311765917#1 311765917#2 311765920 205948493#0 205948493#1 846292585#5 846292585#6 846292585#7 846292585#8 846292585#9" />
    </vehicle>
    <vehicle id="33" depart="39.60" departLane="random" departPos="32.77" arrivalPos="159.27" type="default_car">
        <route edges="-659903814#0 -453851475#4 -453851475#3 -453851475#2 -453851475#2.59 311757634#3 311757634#3.83 E16 205948471#1 205948471#1.1114 205948497#0 205948497#1 205948497#1.253 311757631#0 311757631#1 311757631#2 -311757631#2" />
    </vehicle>
    <vehicle id="34" depart="40.80" departLane="random" departPos="100.13" arrivalPos="3.66" type="default_car">
        <route edges="325245193#1 325245194#4 325245194#5 167384055#4 167384055#5 167384055#6 311757634#2 311757634#2.359 311757634#3 311757634#3.83 E16 205948471#1 205948471#1.1114 205948497#0 205948497#1 205948497#1.253 311757631#0 311757631#1 311757631#2 306658754#1 306658754#2 306658755#0 306658755#1 306658755#2 306658755#3 -996021111#3 -996021111#2 E88 E89 E90" />
    </vehicle>
    <vehicle id="35" depart="42.00" departLane="random" departPos="2.68" arrivalPos="48.42" type="default_car">
        <route edges="E105 -311763070#1 296300590#6 311763066 311763068#0 311763068#1 311763068#2 311763068#3 311763068#4 205948471#0 205948471#1 205948471#1.1114 205948497#0 205948497#1 205948497#1.253 311757631#0 311757631#1 311757631#2 306658754#1 306658754#2 306658755#0 351463090#7 862460761 E99 E100 152357738#1 152357726#3 152357726#4" />
    </vehicle>
    <vehicle id="36" depart="43.20" departLane="random" departPos="114.29" arrivalPos="588.17" type="default_car">
        <route edges="528505346#1 528505346#2 528505346#3 528505346#4 528505346#5 528505346#6 528505346#7 -206099934#5 -206099934#4 -206099934#3 -206099934#2 -206099934#1 -311757631#0 -205948497#1 -205948497#1.251 -205948497#0 E63 -862886702#1 -862886702#0 -E59" />
    </vehicle>
    <vehicle id="37" depart="44.40" departLane="random" departPos="7.41" arrivalPos="36.44" type="default_car">
        <route edges="311765921#1 -311765921#1 -311765921#0 296300590#6 311763066 311763068#0 311763068#1 311763068#2 311763068#3 311763068#4 205948471#0 205948471#1 205948471#1.1114 E63 E38 -119080906#4.444 311852880#4 E14" />
    </vehicle>
    <vehicle id="38" depart="45.60" departLane="random" departPos="1.92" arrivalPos="54.38" type="default_car">
        <route edges="E91 E92 458782491#0 458782491#1 458782491#2 458782491#3 458782491#4 458782491#5 458782491#6 458782491#7 458782491#8 205864917#8 205864917#9 205864917#10 205864917#11 205864917#12 410081184 528505343#1 528505343#3 528505343#4 528505355#3 528505346#0 528505346#1 528505346#2 528505346#3 528505346#4 528505346#5 528505346#6 528505346#7 306658754#0 306658754#1 306658754#2" />
    </vehicle>
    <vehicle id="40" depart="48.00" departLane="random" departPos="107.22" arrivalPos="11.29" type="default_car">
        <route edges="-205944120#1 311859936#1 E60 E102 E103 205923117#2 205923117#3 205923117#5 205923117#6 205923117#7 205923117#8 351463090#5 351463090#6 351463090#7 351463090#8 351463090#9 351463090#10 528505349#0 528505349#1 528505349#2 528505349#3 528505349#4 528505349#5 206099931#2 206099931#3 -311771504#2 -311771504#1 -311771504#0 -298959858#3 -298959858#2 298959858#2" />
    </vehicle>
    <vehicle id="41" depart="49.20" departLane="random" departPos="100.84" arrivalPos="21.21" type="default_car">
        <route edges="862886702#1 -862886702#1 -862886702#0 -E59 -E59.1482 311766744#7 311766744#7.116 311766744#9 311766744#10 -958442984#0 958442984#0 958442984#1" />
    </vehicle>
    <vehicle id="42" depart="50.40" departLane="random" departPos="34.10" arrivalPos="268.73" type="default_car">
        <route edges="-E59.1482 311757634#3 311757634#3.83 E16 205948471#1 205948471#1.1114 205948497#0 205948497#1 205948497#1.253 311757631#0 311757631#1 311757631#2 306658754#1 306658754#2 306658754#3 306658754#5 306658754#6 718039778#1 -718039778#1" />
    </vehicle>
    <vehicle id="43" depart="51.60" departLane="random" departPos="89.32" arrivalPos="8.15" type="default_car">
        <route edges="459224335 459224336 296300586#3 205864917#6 205864917#7 205864917#8 205864917#9 205864917#10 205864917#11 205864917#12 410081184 528505343#1 528505343#3 528505343#4 528505355#3 528505346#0 528505346#1 528505346#2 528505346#3 528505346#4 528505346#5 528505346#6 528505346#7 306658754#0 306658754#1 306658754#2 306658754#3 205923117#11 205923117#12 205923117#13 311859950#1" />
    </vehicle>
    <vehicle id="44" depart="52.80" departLane="random" departPos="63.63" arrivalPos="1.11" type="default_car">
        <route edges="E60 -E101 205900400#1 -E37 560453337#0.663 311766744#9 311766744#10 -958442984#0 958442984#0 958442984#1 -751848112#0 -453842324 453842324 751848112#0 -958442984#1" />
    </vehicle>
    <vehicle id="45" depart="54.00" departLane="random" departPos="189.75" arrivalPos="241.28" type="default_car">
        <route edges="-205900400#5 862886702#0 862886702#1 E38 E41 E42 E53 E54 E55 206099934#1 206099934#2 206099934#3 206099934#4 206099934#5 528505349#0 528505349#1 528505349#2 528505349#3 528505349#4 528505349#5 528505353#0 528505353#1 528505353#2 718031542#2 718031542#3 718031542#4 718031542#5 848340694" />
    </vehicle>
    <vehicle id="46" depart="55.20" departLane="random" departPos="105.43" arrivalPos="33.38" type="default_car">
        <route edges="205923117#11 311859950#9 311859950#12 311859950#13 311859950#14 311859950#15 311859950#17 311859950#18 311859950#19 311859950#20 311859950#21 311859950#22 311859950#23 311853269#1 -311859936#2 -311859936#1 -311859936#0 -E37 560453337#0.663 311766744#9 -453851505#0 -453851512#12 -453851512#11 -453851512#10 453851509#0 453851509#1 453851509#2 453851504#1 453851508#1 453851508#2 453851508#3 453851501#3 453851501#4" />
    </vehicle>
    <vehicle id="47" depart="56.40" departLane="random" departPos="42.63" arrivalPos="3.06" type="default_car">
        <route edges="E84 E82 659927819 -659927818#0 -536837258#3 -536837258#2 -536837258#1 -E45 718031874 659903814#6 659903813#1 E18 E19 E20 205864917#0 205864917#1 205864917#2 205864917#4 205864917#6 205864917#7 -458782491#8 -458782491#7 -458782491#6 -458782491#5" />
    </vehicle>
    <vehicle id="48" depart="57.60" departLane="random" departPos="35.81" arrivalPos="374.78" type="default_car">
        <route edges="311763068#3 311763068#4 311757634#6 311757634#7 1004638331 205948468 311755665#0 311755665#1 205864917#11 205864917#12 410081184 528505343#1 528505343#3 -311771504#2 -311771504#1 -311771504#0 -298959858#3 -298959858#2 -298959858#1 -848340689#1 718031542#2 718031542#3 718031542#4 848340690 311694120#2 528505371#1" />
    </vehicle>
    <vehicle id="49" depart="58.80" departLane="random" departPos="14.14" arrivalPos="168.20" type="default_car">
        <route edges="761189897#2 -453851508#4 -453851508#3 -453851508#2 -453851508#1 -453851508#0 453851512#3 453851512#4 -E47 -453823938#1 -453823938#0 167384055#5 -E44 205948494#1 205948494#2 311763068#3 311763068#4 311757634#6 311757634#7 1004638331 205948468 311755665#0 311755665#1 205864917#11 205864917#12 410081184 528505343#1 528505343#3 528505343#4 528505353#0 528505353#1 528505353#2 848340689#1" />
    </vehicle>
    <vehicle id="50" depart="60.00" departLane="random" departPos="68.82" arrivalPos="99.21" type="default_car">
        <route edges="311757634#2.359 311757634#3 311757634#3.83 311757634#4 311757634#6 311757634#7 1004638331 205948468 311755665#0 311755665#1 205864917#11 205864917#12 410081184 528505343#1 528505343#3 -311771504#2 -311771504#1 -311771504#0 311771503#0" />
    </vehicle>
    <vehicle id="51" depart="61.20" departLane="random" departPos="318.60" arrivalPos="126.88" type="default_car">
        <route edges="958442984#2 958442984#3 325245194#2 325245194#3 325245194#4 325245194#5 167384055#4 167384055#5 167384055#6 311757634#2 E114 E59.92 862886702#0 -205944120#3 205944120#3" />
    </vehicle>
    <vehicle id="52" depart="62.40" departLane="random" departPos="410.43" arrivalPos="85.01" type="default_car">
        <route edges="205948494#2 311763068#3 311763068#4 311757634#6 311757634#7 1004638331 205948468 311755665#0 311755665#1 205864917#11 205864917#12 410081184 528505343#1 528505343#3 -311771504#2 -311771504#1 -311771504#0 -298959858#3 -298959858#2 -298959858#1 -848340689#1 718031542#2 718031542#3 718031542#4 848340690" />
    </vehicle>
    <vehicle id="53" depart="63.60" departLane="random" departPos="19.99" arrivalPos="34.17" type="default_car">
        <route edges="-459453809#2 459453809#2 -311765921#2 -311765921#1 -311765921#0 296300590#6 311763066 311763068#0 311763068#1 311763068#2 311763068#3 311763068#4 205948471#0 205948471#1 205948471#1.1114 E63 311853114#2 311853114#3 311853114#4" />
    </vehicle>
    <vehicle id="55" depart="66.00" departLane="random" departPos="48.32" arrivalPos="5.64" type="default_car">
        <route edges="-659903814#6 E22 E17 311763072#0 311763072#1 311763072#2 311763072#3 311763072#4 296300598#1 296300598#2 296300598#3 296300598#4 205864938#6 311765918 311765919#0 311765919#1 311765919#2 E8 E3 659884044#1 205862304#1 205862304#2 311770939#0 311770939#1 206099997#0 206099997#1" />
    </vehicle>
    <vehicle id="56" depart="67.20" departLane="random" departPos="46.74" arrivalPos="184.69" type="default_car">
        <route edges="311769161#4 862890563 862890563.581 862890565 -311852873#2 -311852873#1 -E12 -311852886 E63 -862886702#1 -862886702#0 -205900400#4 -205900400#3 -205900400#1 E101" />
    </vehicle>
    <vehicle id="57" depart="68.40" departLane="random" departPos="163.40" arrivalPos="122.44" type="default_car">
        <route edges="528505336#0 311852609#1 528505334 528505331 206099991#0 206099931#5 206099931#6 306688819#0 306688819#1 306688817#0 306688817#1 306688817#2 296300595#3 296300595#4 296300595#5 1004638333 846292585#0 846292585#1 846292585#3 846292585#5 846292585#6 846292585#7 846292585#8 846292585#9 846292585#10 311763071#0 311763071#1 311763071#2 311763071#3 846675007 -E22 -718031874 E45 536837258#1 536837258#2 536837258#3 -536837258#3" />
    </vehicle>
    <vehicle id="59" depart="70.80" departLane="random" departPos="12.83" arrivalPos="274.83" type="default_car">
        <route edges="296300595#2 296300595#3 205864917#10 205864917#11 205864917#12 410081184 311769161#1 311769161#2 311769161#3 311769161#4 862890563 862890563.581 862890565 -311852873#2 -311852873#1 -E12 -311852886 E63 311853114#2 311853114#3 311853268#1 311853268#2" />
    </vehicle>
    <vehicle id="60" depart="72.00" departLane="random" departPos="14.39" arrivalPos="80.54" type="default_car">
        <route edges="-453851501#2 -454382620 -453851508#2 -453851508#1 -453851508#0 453851512#3 453851512#4 -E47 -453823938#1 -453823938#0 167384055#5 -E44 205948494#1 205948494#2 311763068#3 311763068#4 311757634#6 311757634#7 1004638331 205948468 311755665#0 205864940 205864917#12 410081184 528505343#1 528505343#3 -311771504#2 -311771504#1 -311771504#0" />
    </vehicle>
    <vehicle id="61" depart="73.20" departLane="random" departPos="80.43" arrivalPos="226.26" type="default_car">
        <route edges="-119080906#1 119080906#1 119080906#2 119080906#3 119080906#4 E41 E35 E61 -205948497#1.251 -205948497#0 205944061#0 205944061#0.433 205944061#1 311757632#1 311757632#2 311757632#2.215 311757632#3 311757632#4 311757632#5 311763067 205948479#0 311763070#1 311763070#2 311763070#3 311763070#4 311763070#5 311763070#6 311763070#7 311763072#0" />
    </vehicle>
    <vehicle id="62" depart="74.40" departLane="random" departPos="1.45" arrivalPos="100.90" type="default_car">
        <route edges="718031376#1 528505371#1 848340691#1 848340691#2 848340689#1 298959858#1 298959858#2 298959858#3 311771504#0 311771504#1 311771504#2 206099931#4 206099931#5 206099931#6 306688819#0 306688819#1 306688817#0 306688817#1 306688817#2 296300595#3 296300595#4 296300595#5 1004638333 846292585#0 846292585#1 846292585#3 846292585#5 846292585#6 846292585#7 846292585#8 846292585#9 846292585#10 296300590#4" />
    </vehicle>
    <vehicle id="63" depart="75.60" departLane="random" departPos="90.31" arrivalPos="309.75" type="default_car">
        <route edges="751858104#5 751858104#6 167384055#1 -E45 718031874 E22 311763073#3 311763073#4 E19 E20 205864917#0 205864917#1 205864917#2 205864917#4 205864917#6 205864917#7 205864917#8 205864917#9 205864917#10 205864917#11 205864917#12 410081184 528505343#1 -298959859#4 311769159 -311771504#0 -298959858#3 -298959858#2 -298959858#1 -848340689#1 718031542#2 718031542#3 718031542#4 718031542#5 848340694" />
    </vehicle>
    <vehicle id="65" depart="78.00" departLane="random" departPos="86.99" arrivalPos="95.34" type="default_car">
        <route edges="-659903814#3 -659903814#2 -659903814#1 -659903814#0 -453851475#4 -453851475#3 -453851475#2 -453851475#2.59 311757634#3 311757634#3.83 E16 205948471#1 205948471#1.1114 205948497#0 205948497#1 205948497#1.253 311757631#0 311757631#1 311757631#2 306658754#1 306658754#2 306658755#0 351463090#7 862460761 E99 E100 152357738#1" />
    </vehicle>
    <vehicle id="66" depart="79.20" departLane="random" departPos="90.63" arrivalPos="147.22" type="default_car">
        <route edges="846679131 E43 846679130#2 846679130#3 E85 E86 E16 205948471#1 205948471#1.1114 205948497#0 205948497#1 205948497#1.253 311757631#0 311757631#1 311757631#2 306658754#1 306658754#2 306658755#0 306658755#1 306658755#2 306658755#3 -996021111#3 -996021111#2 E88 E89 E90 152357738#1 152357726#3" />
    </vehicle>
    <vehicle id="67" depart="80.40" departLane="random" departPos="0.99" arrivalPos="72.48" type="default_car">
        <route edges="205864917#10 311755665#2 306688817#2 296300595#3 296300595#4 296300595#5 1004638333 846292585#0 846292585#1 846292585#3 846292585#5 846292585#6 846292585#7 846292585#8 846292585#9 846292585#10 311763071#0 311763071#1 311763071#2 311763071#3 311763071#4 -E17 -E22 -718031874 E45 205900421#3 -751858104#6 -751858104#5 -683503000#0" />
    </vehicle>
    <vehicle id="68" depart="81.60" departLane="random" departPos="148.80" arrivalPos="34.00" type="default_car">
        <route edges="311757634#3.83 E16 205948471#1 205948471#1.1114 205948497#0 205948497#1 205948497#1.253 311757631#0 311757631#1 311757631#2 306658754#1 306658754#2 306658755#0 306658755#1 -E67 -E66 -E65 -E64 996021111#0 E88 E89 E90 152357738#1 152357726#3" />
    </vehicle>
    <vehicle id="69" depart="82.80" departLane="random" departPos="20.80" arrivalPos="421.33" type="default_car">
        <route edges="848340690 311694120#2 528505371#1 848340691#1 848340691#2 528505355#0 528505355#1 528505355#2 206099931#2 206099931#3 206099931#4 206099931#5 206099931#6 311769161#1 311769161#2 311769161#3 311769161#4 862890563 E9 311766744#2 311766744#3 205948471#0 205948471#1" />
    </vehicle>
    <vehicle id="70" depart="84.00" departLane="random" departPos="14.27" arrivalPos="29.94" type="default_car">
        <route edges="311765921#4 311765921#5 311765921#6 311765921#7 311765921#8 311765918 311765919#0 311765919#1 311765919#2 E8 862890563.581 862890565 -311852873#2 -311852873#1 -311852873#0 -206100004#3 -206100004#2 -206100004#1 E62 205948497#1.253 311757631#0 311757631#1 311757631#2 306658754#1 306658754#2 306658755#0 351463090#7 862460761 E99 E100 152357738#1" />
    </vehicle>
    <vehicle id="71" depart="85.20" departLane="random" departPos="44.85" arrivalPos="115.87" type="default_car">
        <route edges="311859940#0 311859940#1 -311859943#0 205944120#2 205944120#3 -862886702#0 -E59 E113 311757634#3.83 311757634#4 311757632#1 311757632#2 311757632#2.215 311757632#3 311757632#4 311757632#5 311763067 205948479#0 205948479#1 205948479#2 205948479#3 205948479#4 296300590#4" />
    </vehicle>
    <vehicle id="72" depart="86.40" departLane="random" departPos="74.25" arrivalPos="1958.41" type="default_car">
        <route edges="E29 E30 528505333 528505332 311756861#0 311756861#1 206099968#0 206099968#1 528505346#1 528505346#2 528505346#3 528505346#4 528505346#5 528505346#6 528505346#7 306658754#0 306658754#1 306658754#2 306658754#3 205923117#11 205923117#12 205923117#13 205923117#15" />
    </vehicle>
    <vehicle id="73" depart="87.60" departLane="random" departPos="471.69" arrivalPos="471.51" type="default_car">
        <route edges="-958442984#2 -958442984#1 -958442984#0 311757634#0 311757634#2 311757634#2.359 311757634#3 311757634#3.83 311757634#4 311757634#6 311757634#7 1004638331 205948468 311755665#0 311755665#1 205864917#11 205864917#12 410081184 528505343#1 528505343#3 528505343#4 306688826#0 306688826#1 306688826#2 535477965#0 535477967 535477968#2 535477968#3 535477968#4" />
    </vehicle>
    <vehicle id="74" depart="88.80" departLane="random" departPos="42.91" arrivalPos="13.58" type="default_car">
        <route edges="311763070#5 311763070#6 311763070#7 -311763070#7 -311763070#6 -311763070#5 -311763070#4 -311763070#3 -311763070#2 -311763070#1 296300590#6 311763066 311763068#0 311763068#1 311763068#2 311763068#3 311763068#4 205948471#0 205948471#1 205948471#1.1114 205948497#0 205948497#1 205948497#1.253 311757631#0 206099934#1 206099934#2 -206099934#2 -206099934#1" />
    </vehicle>
    <vehicle id="76" depart="91.20" departLane="random" departPos="96.94" arrivalPos="5.30" type="default_car">