[General]
cmdenv-express-mode = true
cmdenv-autoflush = true
cmdenv-status-frequency = 1s
**.cmdenv-log-level = info

image-path = ../../images

network = FuzzyTrustScenario

##########################################################
#            Simulation parameters                       #
##########################################################
debug-on-errors = true
print-undisposed = true

# 1h
sim-time-limit = 3600s

**.scalar-recording = true
**.vector-recording = true

#*.playgroundSizeX = 2500m
#*.playgroundSizeY = 2500m
# 扩大仿真区域（需大于等于SUMO地图范围，具体查看*.net.xml中的 location convBoundary）
*.playgroundSizeX = 13547.82m
*.playgroundSizeY = 6056.65m
*.playgroundSizeZ = 50m

##########################################################
# Annotation parameters                                  #
##########################################################
*.annotations.draw = true

##########################################################
# Obstacle parameters                                    #
##########################################################
# Disabled obstacle configuration to avoid XML parsing errors
# *.obstacles.obstacles = xmldoc("config.xml", "//AnalogueModel[@type='SimpleObstacleShadowing']/obstacles")

##########################################################
#            TraCIScenarioManager parameters             #
##########################################################
*.manager.updateInterval = 1s
*.manager.host = "localhost"
*.manager.port = 9999
*.manager.autoShutdown = true
*.manager.launchConfig = xmldoc("FuzzyVeins.launchd.xml")


##########################################################
#                       RSU SETTINGS                     #
#                                                        #
#                                                        #
##########################################################

*.rsu[0].mobility.x = 7733
*.rsu[0].mobility.y = 6056.65 - 4686
*.rsu[0].mobility.z = 3

*.rsu[1].mobility.x = 6666
*.rsu[1].mobility.y = 6056.65 - 3082
*.rsu[1].mobility.z = 3

*.rsu[2].mobility.x = 8536
*.rsu[2].mobility.y = 6056.65 - 4378
*.rsu[2].mobility.z = 3

*.rsu[3].mobility.x = 6294
*.rsu[3].mobility.y = 6056.65 - 4539
*.rsu[3].mobility.z = 3

*.rsu[4].mobility.x = 5401
*.rsu[4].mobility.y = 6056.65 - 3260
*.rsu[4].mobility.z = 3

*.rsu[5].mobility.x = 9322
*.rsu[5].mobility.y = 6056.65 - 4056
*.rsu[5].mobility.z = 3

*.rsu[6].mobility.x = 4333
*.rsu[6].mobility.y = 6056.65 - 3772
*.rsu[6].mobility.z = 3

*.rsu[7].mobility.x = 8621
*.rsu[7].mobility.y = 6056.65 - 3396
*.rsu[7].mobility.z = 3

*.rsu[8].mobility.x = 7681
*.rsu[8].mobility.y = 6056.65 - 2550
*.rsu[8].mobility.z = 3

*.rsu[9].mobility.x = 9425
*.rsu[9].mobility.y = 6056.65 - 1837
*.rsu[9].mobility.z = 3


# RSU节点FuzzyTrust特定配置
*.rsu[*].appl.configFile = "config.json"
*.rsu[*].appl.decisionInterval = 0.1s
*.rsu[*].appl.isRSU = true
*.rsu[*].appl.isVehicleNode = false
*.rsu[*].appl.sendTrustBeacons = true


*.rsu[*].applType = "FuzzyTrustApp"
*.rsu[*].appl.headerLength = 80 bit
# *.rsu[*].appl.sendBeacons = false
*.rsu[*].appl.dataOnSch = false
# *.rsu[*].appl.beaconInterval = 1s
*.rsu[*].appl.beaconUserPriority = 7
*.rsu[*].appl.dataUserPriority = 5
*.rsu[*].nic.phy80211p.antennaOffsetZ = 0 m

##########################################################
#                      App Layer                         #
##########################################################

# 更新车辆节点配置为FuzzyTrustApp
*.node[*].applType = "FuzzyTrustApp"
*.node[*].appl.configFile = "config.json"
*.node[*].appl.decisionInterval = 0.1s
*.node[*].appl.isRSU = false
*.node[*].appl.taskUrgency = 0.7
*.node[*].appl.taskReliability = 0.8
*.node[*].appl.taskElasticity = 0.5
*.node[*].appl.sendTrustBeacons = true
*.node[*].appl.beaconInterval = 1s

##########################################################
#            11p specific parameters                     #
#                                                        #
#                    NIC-Settings                        #
##########################################################
*.connectionManager.sendDirect = true
*.connectionManager.maxInterfDist = 2600m
*.connectionManager.drawMaxIntfDist = false

*.**.nic.mac1609_4.useServiceChannel = false

*.**.nic.mac1609_4.txPower = 20mW
*.**.nic.mac1609_4.bitrate = 6Mbps
*.**.nic.phy80211p.minPowerLevel = -110dBm

*.**.nic.phy80211p.useNoiseFloor = true
*.**.nic.phy80211p.noiseFloor = -98dBm

*.**.nic.phy80211p.decider = xmldoc("config.xml")
*.**.nic.phy80211p.analogueModels = xmldoc("config.xml")
*.**.nic.phy80211p.usePropagationDelay = true

*.**.nic.phy80211p.antenna = xmldoc("antenna.xml", "/root/Antenna[@id='monopole']")
*.node[*].nic.phy80211p.antennaOffsetY = 0 m
*.node[*].nic.phy80211p.antennaOffsetZ = 1.895 m



##########################################################
#                      Mobility                          #
##########################################################
*.node[*].veinsmobility.x = 0
*.node[*].veinsmobility.y = 0
*.node[*].veinsmobility.z = 0
*.node[*].veinsmobility.setHostSpeed = false
*.node[*0].veinsmobility.accidentCount = 1
*.node[*0].veinsmobility.accidentStart = 73s
*.node[*0].veinsmobility.accidentDuration = 50s

[Config Default]

[Config WithBeaconing]
*.rsu[*].appl.sendBeacons = true
*.node[*].appl.sendBeacons = true

[Config WithChannelSwitching]
*.**.nic.mac1609_4.useServiceChannel = true
*.node[*].appl.dataOnSch = true
*.rsu[*].appl.dataOnSch = true


# 数据收集配置
*.node[*].appl.enableDataCollection = true    # 启用数据收集
*.node[*].appl.exportDataToCSV = true         # 导出CSV文件
*.node[*].appl.dataHistorySize = 1000         # 历史数据缓存大小
*.node[*].appl.enableResourceMonitoring = true # 启用资源监控
*.node[*].appl.energyUpdateInterval = 1s       # 能量更新间隔

# RSU数据收集配置
*.rsu[*].appl.enableDataCollection = true
*.rsu[*].appl.exportDataToCSV = true
*.rsu[*].appl.dataHistorySize = 1000
*.rsu[*].appl.enableResourceMonitoring = true
*.rsu[*].appl.energyUpdateInterval = 1s



##########################################################
#            策略选择历史数据收集配置                      #
##########################################################

# 策略选择历史收集配置
*.node[*].appl.enableStrategyHistoryCollection = true
*.node[*].appl.exportStrategyHistoryToCSV = true
*.node[*].appl.strategyHistorySize = 500
*.node[*].appl.enableStrategyStatistics = true

# 博弈理论相关配置
*.node[*].appl.gameManager_learningRate = 0.1
*.node[*].appl.gameManager_explorationRate = 0.1
*.node[*].appl.gameManager_discountFactor = 0.9

# 模糊信任评估配置
*.node[*].appl.fuzzyTrust_threshold = 0.6
*.node[*].appl.fuzzyTrust_updateInterval = 1.0

# QoS评估配置
*.node[*].appl.qos_urgencyWeight = 0.6
*.node[*].appl.qos_reliabilityWeight = 0.4
*.node[*].appl.qos_couplingFactor = 0.5

# OWA-RL配置
*.node[*].appl.owarlAgent_eta = 0.1
*.node[*].appl.owarlAgent_lambda = 0.9
*.node[*].appl.owarlAgent_updatePeriod = 10

# RSU策略选择历史收集配置
*.rsu[*].appl.enableStrategyHistoryCollection = true
*.rsu[*].appl.exportStrategyHistoryToCSV = true
*.rsu[*].appl.strategyHistorySize = 500
*.rsu[*].appl.enableStrategyStatistics = true
*.rsu[*].appl.gameManager_learningRate = 0.1
*.rsu[*].appl.gameManager_explorationRate = 0.1
*.rsu[*].appl.gameManager_discountFactor = 0.9

##########################################################
#            MAE性能评估配置                             #
##########################################################

# MAE性能评估配置 - 用于IT2-Sigmoid信任评估 vs MAE vs 恶意节点比例的性能图生成
[Config MAE_Performance_Test]
extends = General

cmdenv-express-mode = true
cmdenv-autoflush = true
cmdenv-status-frequency = 1s
**.cmdenv-log-level = info

# 仿真基本参数
sim-time-limit = 300s
repeat = 10  # 每个恶意节点比例运行10次独立实验

# MAE数据收集配置
*.node[*].appl.enableMAECollection = true
*.node[*].appl.exportMAEToCSV = true
*.node[*].appl.maeExperimentRuns = 10
*.node[*].appl.currentExperimentRun = ${repetition}

# 恶意节点比例配置（0%, 10%, 20%, 30%, 40%, 50%）
*.node[*].appl.maliciousRatio = ${maliciousRatio=0, 10, 20, 30, 40, 50}

# 节点数量配置
*.numNodes = 50

# 信任更新间隔（更频繁的更新以获得更多数据点）
*.node[*].appl.trustUpdateInterval = 1s

# 输出配置
output-vector-file = ${resultdir}/mae_vectors_${maliciousRatio}_${repetition}.vec
output-scalar-file = ${resultdir}/mae_scalars_${maliciousRatio}_${repetition}.sca

# 结果目录
result-dir = results/mae_performance

# 随机种子配置（确保每次实验的随机性）
seed-set = ${repetition}

# 模糊信任评估参数（覆盖默认值）
*.node[*].appl.fuzzyTrustAlpha = 0.3
*.node[*].appl.fuzzyTrustBeta = 0.4
*.node[*].appl.fuzzyTrustGamma = 0.3
*.node[*].appl.fuzzyTrustThreshold = 0.6

# QoS参数（覆盖默认值）
*.node[*].appl.qosUrgencyWeight = 0.4
*.node[*].appl.qosReliabilityWeight = 0.6
*.node[*].appl.qosThreshold = 0.7

# 博弈理论参数（覆盖默认值）
*.node[*].appl.gameCooperationReward = 3.0
*.node[*].appl.gameDefectionPenalty = 1.0
*.node[*].appl.gameTemptation = 5.0
*.node[*].appl.gameSuckerPayoff = 0.0

# OWA-RL参数（覆盖默认值）
*.node[*].appl.owaLearningRate = 0.1
*.node[*].appl.owaDiscountFactor = 0.9
*.node[*].appl.owaExplorationRate = 0.1
*.node[*].appl.owaWeightUpdateInterval = 10.0

##########################################################
#            OWAL-RL权重演化性能测试配置                  #
##########################################################

# OWAL-RL权重演化专用配置 - 用于生成第三个性能图表
[Config OWARL_Weight_Evolution_Test]
extends = General

cmdenv-express-mode = true
cmdenv-autoflush = true
cmdenv-status-frequency = 1s
**.cmdenv-log-level = info

# 仿真基本参数
sim-time-limit = 300s
repeat = 5  # 运行5次独立实验以获得统计数据

# OWAL-RL权重收集核心配置
*.node[*].appl.enableOWARLWeightCollection = true
*.node[*].appl.exportOWARLWeightsToCSV = true
*.node[*].appl.owarlSamplingInterval = 0.5s
*.node[*].appl.owarlOutputDirectory = "results/OWAL-RL/data/"

*.rsu[*].appl.enableOWARLWeightCollection = true
*.rsu[*].appl.exportOWARLWeightsToCSV = true
*.rsu[*].appl.owarlSamplingInterval = 0.5s
*.rsu[*].appl.owarlOutputDirectory = "results/OWAL-RL/data/"

# 节点数量配置（确保有足够数据）
*.numNodes = 30

# 更新间隔配置（快速权重适应）
*.node[*].appl.trustUpdateInterval = 0.5s
*.node[*].appl.qosUpdateInterval = 0.5s
*.node[*].appl.gameUpdateInterval = 0.5s
*.node[*].appl.decisionInterval = 0.5s

# 输出配置
output-vector-file = ${resultdir}/owarl_vectors_${repetition}.vec
output-scalar-file = ${resultdir}/owarl_scalars_${repetition}.sca

# 结果目录
result-dir = results/OWAL-RL

# 随机种子配置
seed-set = ${repetition}

# OWA-RL特化参数（促进权重快速变化）
*.node[*].appl.owarlAgent_eta = 0.08          # 学习率η
*.node[*].appl.owarlAgent_lambda = 0.7        # 正则化参数λ  
*.node[*].appl.owarlAgent_updatePeriod = 2    # 更新周期（秒）

*.rsu[*].appl.owarlAgent_eta = 0.08
*.rsu[*].appl.owarlAgent_lambda = 0.7
*.rsu[*].appl.owarlAgent_updatePeriod = 2

# 场景变化配置（促进不同拥塞场景）
*.node[*].appl.qosDelayThreshold = 50ms       # 较低延迟阈值
*.node[*].appl.qosLossThreshold = 0.03        # 较低丢包阈值
*.node[*].appl.resourceCpuThreshold = 0.7     # CPU使用率阈值
*.node[*].appl.resourceBandwidthThreshold = 0.8 # 带宽使用率阈值

# 信任评估参数
*.node[*].appl.fuzzyTrustThreshold = 0.65     # 信任阈值
*.node[*].appl.fuzzyTrustAlpha = 0.4
*.node[*].appl.fuzzyTrustBeta = 0.3
*.node[*].appl.fuzzyTrustGamma = 0.3

# 博弈理论参数（增强策略选择变化）
*.node[*].appl.gameManager_learningRate = 0.15
*.node[*].appl.gameManager_explorationRate = 0.25
*.node[*].appl.gameManager_discountFactor = 0.85

# 数据收集基本配置
*.node[*].appl.enableDataCollection = true
*.node[*].appl.exportDataToCSV = true
*.rsu[*].appl.enableDataCollection = true
*.rsu[*].appl.exportDataToCSV = true

# FuzzyVeins通用配置
[Config FuzzyVeins]
extends = General

# 基本仿真参数
sim-time-limit = 300s
cmdenv-express-mode = true

##########################################################
#            Choquet-OWA性能数据收集配置                 #
##########################################################

# Choquet-OWA数据收集配置 - 用于双阶资源聚合性能分析
[Config ChoquetOWA_Performance]
extends = General
cmdenv-express-mode = true
cmdenv-autoflush = true
cmdenv-status-frequency = 1s
**.cmdenv-log-level = info

# 仿真基本参数
sim-time-limit = 300s
# 3种任务类型，每种30次重复，总共90次实验
repeat = 30

# 参数化变量定义：任务类型
*.node[*].appl.currentTaskType = ${taskType="compute_intensive", "bandwidth_sensitive", "energy_sensitive"}
*.rsu[*].appl.currentTaskType = ${taskType}

# Choquet-OWA数据收集配置
*.node[*].appl.enableChoquetOWACollection = true
*.node[*].appl.exportChoquetOWAToCSV = true
*.node[*].appl.choquetSamplingInterval = 1.0s
*.node[*].appl.choquetOutputDirectory = "results/choquet_owa/data/"

# 节点数量配置（20辆车+10个RSU=30个节点）
*.numNodes = 20

# 实验运行次数配置
*.node[*].appl.maeExperimentRuns = 30
*.node[*].appl.currentExperimentRun = ${repetition}

# 输出配置
output-vector-file = ${resultdir}/choquet_vectors_${taskType}_${repetition}.vec
output-scalar-file = ${resultdir}/choquet_scalars_${taskType}_${repetition}.sca

# 结果目录
result-dir = results/choquet_owa

# 随机种子配置
seed-set = ${repetition}

# RSU Choquet-OWA配置
*.rsu[*].appl.enableChoquetOWACollection = true
*.rsu[*].appl.exportChoquetOWAToCSV = true
*.rsu[*].appl.choquetSamplingInterval = 1.0s
*.rsu[*].appl.choquetOutputDirectory = "results/choquet_owa/data/"

# 默认Choquet-OWA配置（应用于所有配置）
*.node[*].appl.enableChoquetOWACollection = true
*.node[*].appl.exportChoquetOWAToCSV = true
*.node[*].appl.choquetSamplingInterval = 1.0s
*.node[*].appl.choquetOutputDirectory = "results/choquet_owa/data/"
*.node[*].appl.currentTaskType = "compute_intensive"

*.rsu[*].appl.enableChoquetOWACollection = true
*.rsu[*].appl.exportChoquetOWAToCSV = true
*.rsu[*].appl.choquetSamplingInterval = 1.0s
*.rsu[*].appl.choquetOutputDirectory = "results/choquet_owa/data/"
*.rsu[*].appl.currentTaskType = "compute_intensive"

##########################################################
#            车辆混合策略数据收集配置                    #
##########################################################

# 车辆混合策略数据收集配置（默认启用）
*.node[*].appl.enableMixingStrategyCollection = true
*.node[*].appl.exportMixingStrategyToCSV = true
*.node[*].appl.mixingStrategySamplingInterval = 1.0s
*.node[*].appl.mixingStrategyOutputDirectory = "results/Vehicle Mixing Strategy/data/"

# RSU车辆混合策略数据收集配置
*.rsu[*].appl.enableMixingStrategyCollection = true
*.rsu[*].appl.exportMixingStrategyToCSV = true
*.rsu[*].appl.mixingStrategySamplingInterval = 1.0s
*.rsu[*].appl.mixingStrategyOutputDirectory = "results/Vehicle Mixing Strategy/data/"

##########################################################
#            车辆混合策略分布演化测试配置                #
##########################################################

# 车辆混合策略分布演化专用配置 - 用于生成第四个性能图表
[Config VehicleMixingStrategy_Test]
extends = General

cmdenv-express-mode = true
cmdenv-autoflush = true
cmdenv-status-frequency = 1s
**.cmdenv-log-level = info

# 仿真基本参数
sim-time-limit = 300s
repeat = 10  # 运行5次独立实验以获得统计数据

# 车辆混合策略数据收集核心配置
*.node[*].appl.enableMixingStrategyCollection = true
*.node[*].appl.exportMixingStrategyToCSV = true
*.node[*].appl.mixingStrategySamplingInterval = 0.5s
*.node[*].appl.mixingStrategyOutputDirectory = "results/Vehicle Mixing Strategy/data/"

*.rsu[*].appl.enableMixingStrategyCollection = true
*.rsu[*].appl.exportMixingStrategyToCSV = true
*.rsu[*].appl.mixingStrategySamplingInterval = 0.5s
*.rsu[*].appl.mixingStrategyOutputDirectory = "results/Vehicle Mixing Strategy/data/"

# 节点数量配置（确保有足够数据）
*.numNodes = 25

# 更新间隔配置（快速策略变化）
*.node[*].appl.trustUpdateInterval = 0.5s
*.node[*].appl.qosUpdateInterval = 0.5s
*.node[*].appl.gameUpdateInterval = 0.5s
*.node[*].appl.decisionInterval = 0.5s

# 输出配置
output-vector-file = ${resultdir}/mixing_strategy_vectors_${repetition}.vec
output-scalar-file = ${resultdir}/mixing_strategy_scalars_${repetition}.sca

# 结果目录
result-dir = results/Vehicle Mixing Strategy

# 随机种子配置
seed-set = ${repetition}

# 博弈理论参数（增强策略选择变化）
*.node[*].appl.gameManager_learningRate = 0.15
*.node[*].appl.gameManager_explorationRate = 0.25
*.node[*].appl.gameManager_discountFactor = 0.85

# 信任评估参数（促进策略多样性）
*.node[*].appl.fuzzyTrustThreshold = 0.65
*.node[*].appl.fuzzyTrustAlpha = 0.4
*.node[*].appl.fuzzyTrustBeta = 0.3
*.node[*].appl.fuzzyTrustGamma = 0.3

# QoS参数（动态场景变化）
*.node[*].appl.qosUrgencyWeight = 0.5
*.node[*].appl.qosReliabilityWeight = 0.5
*.node[*].appl.qosDelayThreshold = 60ms
*.node[*].appl.qosLossThreshold = 0.04

##########################################################
#            消融对照测试配置                           #
##########################################################

# 消融对照测试配置 - 用于生成第五个性能测试：去掉IT2/Choquet/OWA-RL后收益雷达对比
[Config Ablation_Study_Test]
extends = General

cmdenv-express-mode = true
cmdenv-autoflush = true
cmdenv-status-frequency = 1s
**.cmdenv-log-level = info

# 仿真基本参数
sim-time-limit = 300s
repeat = 5  # 每个模型配置运行5次独立实验

# 模型配置参数化：4种不同的模型配置
# full = 完整模型（含IT2 + Choquet + OWA-RL）
# no_IT2 = 去掉IT2模块后的模型
# no_Choquet = 去掉Choquet-OWA模块后的模型
# no_RL = 去掉OWA-RL模块后的模型
*.node[*].appl.ablationModelType = ${modelType="full", "no_IT2", "no_Choquet", "no_RL"}
*.rsu[*].appl.ablationModelType = ${modelType}

# 消融对照测试数据收集核心配置
*.node[*].appl.enableAblationCollection = true
*.node[*].appl.exportAblationToCSV = true
*.node[*].appl.ablationSamplingInterval = 1.0s
*.node[*].appl.ablationOutputDirectory = "results/Ablation/data/"

*.rsu[*].appl.enableAblationCollection = true
*.rsu[*].appl.exportAblationToCSV = true
*.rsu[*].appl.ablationSamplingInterval = 1.0s
*.rsu[*].appl.ablationOutputDirectory = "results/Ablation/data/"

# 节点数量配置（确保有足够数据）
*.numNodes = 30

# 更新间隔配置（标准频率）
*.node[*].appl.trustUpdateInterval = 1.0s
*.node[*].appl.qosUpdateInterval = 1.0s
*.node[*].appl.gameUpdateInterval = 1.0s
*.node[*].appl.decisionInterval = 1.0s

# 输出配置
output-vector-file = ${resultdir}/ablation_vectors_${modelType}_${repetition}.vec
output-scalar-file = ${resultdir}/ablation_scalars_${modelType}_${repetition}.sca

# 结果目录
result-dir = results/Ablation

# 随机种子配置
seed-set = ${repetition}

# 基础参数配置（相同的基础条件）
*.node[*].appl.fuzzyTrustAlpha = 0.3
*.node[*].appl.fuzzyTrustBeta = 0.4
*.node[*].appl.fuzzyTrustGamma = 0.3
*.node[*].appl.fuzzyTrustThreshold = 0.6

*.node[*].appl.qosUrgencyWeight = 0.4
*.node[*].appl.qosReliabilityWeight = 0.6
*.node[*].appl.qosDelayThreshold = 100ms
*.node[*].appl.qosLossThreshold = 0.05

*.node[*].appl.gameManager_learningRate = 0.1
*.node[*].appl.gameManager_explorationRate = 0.2
*.node[*].appl.gameManager_discountFactor = 0.9

*.node[*].appl.owarlAgent_eta = 0.03
*.node[*].appl.owarlAgent_lambda = 0.7
*.node[*].appl.owarlAgent_updatePeriod = 100

# RSU节点相同配置
*.rsu[*].appl.fuzzyTrustAlpha = 0.3
*.rsu[*].appl.fuzzyTrustBeta = 0.4
*.rsu[*].appl.fuzzyTrustGamma = 0.3
*.rsu[*].appl.fuzzyTrustThreshold = 0.6

*.rsu[*].appl.qosUrgencyWeight = 0.4
*.rsu[*].appl.qosReliabilityWeight = 0.6
*.rsu[*].appl.qosDelayThreshold = 100ms
*.rsu[*].appl.qosLossThreshold = 0.05

*.rsu[*].appl.gameManager_learningRate = 0.1
*.rsu[*].appl.gameManager_explorationRate = 0.2
*.rsu[*].appl.gameManager_discountFactor = 0.9

*.rsu[*].appl.owarlAgent_eta = 0.03
*.rsu[*].appl.owarlAgent_lambda = 0.7
*.rsu[*].appl.owarlAgent_updatePeriod = 100

# 数据收集基本配置
*.node[*].appl.enableDataCollection = true
*.node[*].appl.exportDataToCSV = true
*.rsu[*].appl.enableDataCollection = true
*.rsu[*].appl.exportDataToCSV = true

# 简化配置，专注于消融对照测试
[Config Ablation_Full_Model]
extends = Ablation_Study_Test
# 完整模型：启用所有模块
*.node[*].appl.enableIT2Module = true
*.node[*].appl.enableChoquetOWAModule = true
*.node[*].appl.enableOWARLModule = true
*.rsu[*].appl.enableIT2Module = true
*.rsu[*].appl.enableChoquetOWAModule = true
*.rsu[*].appl.enableOWARLModule = true

[Config Ablation_No_IT2]
extends = Ablation_Study_Test
# 无IT2模块：禁用IT2-Sigmoid信任评估
*.node[*].appl.enableIT2Module = false
*.node[*].appl.enableChoquetOWAModule = true
*.node[*].appl.enableOWARLModule = true
*.rsu[*].appl.enableIT2Module = false
*.rsu[*].appl.enableChoquetOWAModule = true
*.rsu[*].appl.enableOWARLModule = true

[Config Ablation_No_Choquet]
extends = Ablation_Study_Test
# 无Choquet-OWA模块：禁用双阶Choquet-OWA聚合
*.node[*].appl.enableIT2Module = true
*.node[*].appl.enableChoquetOWAModule = false
*.node[*].appl.enableOWARLModule = true
*.rsu[*].appl.enableIT2Module = true
*.rsu[*].appl.enableChoquetOWAModule = false
*.rsu[*].appl.enableOWARLModule = true

[Config Ablation_No_RL]
extends = Ablation_Study_Test
# 无OWA-RL模块：禁用自适应权重学习
*.node[*].appl.enableIT2Module = true
*.node[*].appl.enableChoquetOWAModule = true
*.node[*].appl.enableOWARLModule = false
*.rsu[*].appl.enableIT2Module = true
*.rsu[*].appl.enableChoquetOWAModule = true
*.rsu[*].appl.enableOWARLModule = false
*.rsu[*].appl.enableDataCollection = true
*.rsu[*].appl.exportDataToCSV = true

##########################################################
#            位置-策略联动和能源建模配置                  #
##########################################################

# 位置-策略联动配置
*.node[*].appl.enablePositionBasedStrategyUpdate = true
*.node[*].appl.positionUpdateThreshold = 50.0     # 位置变化触发阈值(米)

# RSU不需要位置-策略联动（位置固定）
*.rsu[*].appl.enablePositionBasedStrategyUpdate = false

# 能源建模配置
*.node[*].appl.enableDetailedEnergyModeling = true
*.node[*].appl.initialBatteryCapacity = 60000.0   # 60kWh初始电池容量
*.node[*].appl.basePowerConsumption = 200.0       # 200W基础功耗

# RSU能源配置（电力充足）
*.rsu[*].appl.enableDetailedEnergyModeling = false  # RSU不需要电池建模
*.rsu[*].appl.initialBatteryCapacity = 1000000.0    # 虚拟大容量
*.rsu[*].appl.basePowerConsumption = 500.0          # 更高基础功耗

##########################################################
#            Chapter 5.2 M1 烟雾测试配置                 #
##########################################################
# 仅用于验证 ITGameEngine 接入 FuzzyTrustApp 不崩溃。
# 60s 仿真，激活 Proposed 方法。SUMO 须能正常启动。
[Config Chapter52_M1_Smoke]
extends = General
sim-time-limit = 60s
*.node[*].appl.enableITGameEngine = true
*.node[*].appl.itGameMethod = "Proposed"
*.rsu[*].appl.enableITGameEngine = true
*.rsu[*].appl.itGameMethod = "Proposed"

##########################################################
#       Chapter 5.2 仿真一：车辆密度扫描 + 3 方法对比     #
##########################################################
# Nv ∈ {50, 100, 150, 200} × method ∈ {Greedy, FixedW, Proposed} × 5 种子 = 60 次
# 按 plan §3.2 / §5.3
[Config Chapter52_Exp1_Density]
extends = General
sim-time-limit = 600s
# 由 ${Nv} 选择 4 个 launchd 之一
*.manager.launchConfig = xmldoc("FuzzyVeins_ch52_Nv${Nv}.launchd.xml")
# iteration variables（OMNeT++ 笛卡尔积）
**.Nv = ${Nv=50,100,150,200}
*.numNodes = ${Nv}
*.node[*].appl.enableITGameEngine = true
*.rsu[*].appl.enableITGameEngine = true
*.node[*].appl.itGameMethod = ${method="Greedy","FixedW","Proposed"}
*.rsu[*].appl.itGameMethod = ${method}
*.node[*].appl.itGame_delta = 0.10
*.node[*].appl.itGame_alpha = 0.5
*.node[*].appl.itGame_lambda = 0.10
*.node[*].appl.itGame_beta = 0.30
*.rsu[*].appl.itGame_delta = 0.10
*.rsu[*].appl.itGame_alpha = 0.5
*.rsu[*].appl.itGame_lambda = 0.10
*.rsu[*].appl.itGame_beta = 0.30
*.rsu[*].appl.governancePeriod = 5s
*.rsu[*].appl.epsilonG = 1e-3
*.node[*].appl.maliciousRatio = 10
# 5 种子重复（${repetition} 是 OMNeT++ 预定义变量，由 repeat 自动取 0..repeat-1）
seed-set = ${repetition}
repeat = 5
# 结果目录按 Nv / method / seed 分层（plan §2.4）
result-dir = results/chapter52/exp1

##########################################################
#  Chapter 5.2 仿真二：消融实验（Full Proposed + 4 消融）  #
##########################################################
# 固定 Nv=150（中高密度），method ∈ {Full, NoIT2, NoGov, NoWFBRI, NoRobust}
# Full = Proposed（5.2.3 表 5-8 "完整方法基准"）
# 5 method × 5 seed = 25 runs，按 plan §3.2
[Config Chapter52_Exp2_Ablation]
extends = General
sim-time-limit = 300s
# 固定中高密度 Nv=150（单值 iteration var 让 logger 能识别 ${Nv}）
*.manager.launchConfig = xmldoc("FuzzyVeins_ch52_Nv150.launchd.xml")
**.Nv = ${Nv=150}
*.numNodes = ${Nv}
*.node[*].appl.enableITGameEngine = true
*.rsu[*].appl.enableITGameEngine = true
# Full 在 ITGameEngine::Method 里对应 Proposed；其他 4 个是消融变体
*.node[*].appl.itGameMethod = ${ablation="Proposed","NoIT2","NoGov","NoWFBRI","NoRobust"}
*.rsu[*].appl.itGameMethod = ${ablation}
*.node[*].appl.itGame_delta = 0.10
*.node[*].appl.itGame_alpha = 0.5
*.node[*].appl.itGame_lambda = 0.10
*.node[*].appl.itGame_beta = 0.30
*.rsu[*].appl.itGame_delta = 0.10
*.rsu[*].appl.itGame_alpha = 0.5
*.rsu[*].appl.itGame_lambda = 0.10
*.rsu[*].appl.itGame_beta = 0.30
*.rsu[*].appl.governancePeriod = 5s
*.rsu[*].appl.epsilonG = 1e-3
*.node[*].appl.maliciousRatio = 10
seed-set = ${repetition}
repeat = 5
result-dir = results/chapter52/exp2

##########################################################
#  Chapter 5.2 补强仿真一：高压力密度扫描 + 统计检验       #
##########################################################
[Config Chapter52_Exp1_Density_Strong]
extends = General
sim-time-limit = 600s
*.manager.launchConfig = xmldoc("FuzzyVeins_ch52_Nv${Nv}.launchd.xml")
**.Nv = ${Nv=50,100,150,200}
*.numNodes = ${Nv}
*.node[*].appl.enableITGameEngine = true
*.rsu[*].appl.enableITGameEngine = true
*.node[*].appl.itGameMethod = ${method="Greedy","FixedW","Proposed"}
*.rsu[*].appl.itGameMethod = ${method}
*.node[*].appl.itGame_delta = 0.20
*.rsu[*].appl.itGame_delta = 0.20
*.node[*].appl.maliciousRatio = 20
*.node[*].appl.beaconInterval = 0.5s
*.rsu[*].appl.beaconInterval = 0.5s
*.node[*].appl.taskUrgency = 0.9
*.node[*].appl.taskReliability = 0.9
*.rsu[*].appl.governancePeriod = 2s
*.rsu[*].appl.epsilonG = 2e-3
seed-set = ${repetition}
repeat = 10
result-dir = results/chapter52_strong/exp1

##########################################################
#  Chapter 5.2 补强仿真二：高压力消融 + 统计检验           #
##########################################################
[Config Chapter52_Exp2_Ablation_Strong]
extends = General
sim-time-limit = 600s
*.manager.launchConfig = xmldoc("FuzzyVeins_ch52_Nv200.launchd.xml")
**.Nv = ${Nv=200}
*.numNodes = ${Nv}
*.node[*].appl.enableITGameEngine = true
*.rsu[*].appl.enableITGameEngine = true
*.node[*].appl.itGameMethod = ${ablation="Proposed","NoIT2","NoGov","NoWFBRI","NoRobust"}
*.rsu[*].appl.itGameMethod = ${ablation}
*.node[*].appl.itGame_delta = 0.20
*.rsu[*].appl.itGame_delta = 0.20
*.node[*].appl.maliciousRatio = 20
*.node[*].appl.beaconInterval = 0.5s
*.rsu[*].appl.beaconInterval = 0.5s
*.node[*].appl.taskUrgency = 0.9
*.node[*].appl.taskReliability = 0.9
*.rsu[*].appl.governancePeriod = 2s
*.rsu[*].appl.epsilonG = 2e-3
seed-set = ${repetition}
repeat = 10
result-dir = results/chapter52_strong/exp2
